FoamFile
{
    version     2.0;
    format      ascii;
    class       dictionary;
    location    "constant";
    object      thermophysicalProperties.gas;
}

phaseState      gaseous;

thermoType
{
    type            heRhoThermo;
    mixture         pureMixture;
    transport       const;
    thermo          hConst;
    equationOfState adiabaticPerfectFluid;
    specie          specie;
    energy          sensibleInternalEnergy;
}

TSolidus        5.0;
TLiquidus       10.0;
LatentHeat      1.0;
elec_conductivity   1.0;
magnetic_permeability   1.256e-6;

mixture
{
    specie
    {
        molWeight   28.96;
    }
    equationOfState
    {
        p0      1e5;
        rho0    1.2;
        gamma   1;
        B       1e10;
    }
    thermodynamics
    {
        Cp      1007;
        Hf      0;
    }
    transport
    {
        mu      1e-6;
        Pr      1;
    }
}
