FoamFile
{
    version     2.0;
    format      ascii;
    class       dictionary;
    location    "constant";
    object      thermophysicalProperties.liquid;
}

phaseState      condensed;

thermoType
{
    type            heRhoThermo;
    mixture         pureMixture;
    transport       const;
    thermo          hConst;
    equationOfState adiabaticPerfectFluid;
    specie          specie;
    energy          sensibleInternalEnergy;
}

TSolidus        270.0;
TLiquidus       280.0;
LatentHeat      1.0;
elec_conductivity   1.0;
magnetic_permeability   1.256e-6;

mixture
{
    specie
    {
        molWeight   18.015;
    }
    equationOfState
    {
        p0      1e5;
        rho0    998.2;
        gamma   1;
        B       1e10;
    }
    thermodynamics
    {
        Cp      4182;
        Hf      0;
    }
    transport
    {
        mu      1e-6;
        Pr      1;
    }
}
